6
Coordinates from ORCA-job /scratch/kmoore/ORCASCR_1548729393009197598/input
  H   0.00372492668899     -0.05962540857514     -0.00011590811186
  O   0.96759048482786     -0.02068035687168     -0.00012848795746
  C   1.35098276332002      1.34704868807634      0.00000174219537
  H   0.48981338087181      2.03899915609412      0.00163034334550
  H   1.96153088829129      1.57394944616486     -0.89430185856654
  H   1.96391273718072      1.57282390904066      0.89291416909499
